4
 generated by VMD
 Br        0.990096        2.835643       -0.010039
 F         0.744544        4.619856       -0.011190
 Br        1.493749       -0.299451       -0.009173
 F        -0.208416       -0.845716        0.043366
4
 generated by VMD
 Br        0.948688        2.820028       -0.009838
 F         0.673359        4.577716       -0.010966
 Br        1.482604       -0.302226       -0.008990
 F        -0.150802       -0.846621        0.042499
4
 generated by VMD
 Br        0.907280        2.804413       -0.009637
 F         0.602174        4.535577       -0.010742
 Br        1.471460       -0.305002       -0.008806
 F        -0.093189       -0.847525        0.041631
4
 generated by VMD
 Br        0.865872        2.788797       -0.009437
 F         0.530989        4.493438       -0.010519
 Br        1.460315       -0.307777       -0.008623
 F        -0.035575       -0.848430        0.040764
4
 generated by VMD
 Br        0.824464        2.773182       -0.009236
 F         0.459804        4.451298       -0.010295
 Br        1.449170       -0.310553       -0.008439
 F         0.022039       -0.849335        0.039897
4
 generated by VMD
 Br        0.783056        2.757567       -0.009035
 F         0.388619        4.409159       -0.010071
 Br        1.438026       -0.313328       -0.008256
 F         0.079652       -0.850239        0.039029
4
 generated by VMD
 Br        0.741648        2.741952       -0.008834
 F         0.317434        4.367020       -0.009847
 Br        1.426881       -0.316103       -0.008072
 F         0.137266       -0.851144        0.038162
4
 generated by VMD
 Br        0.700241        2.726336       -0.008634
 F         0.246249        4.324880       -0.009623
 Br        1.415736       -0.318879       -0.007889
 F         0.194879       -0.852049        0.037295
4
 generated by VMD
 Br        0.658833        2.710721       -0.008433
 F         0.175064        4.282741       -0.009400
 Br        1.404592       -0.321654       -0.007705
 F         0.252493       -0.852953        0.036427
4
 generated by VMD
 Br        0.617425        2.695106       -0.008232
 F         0.103879        4.240602       -0.009176
 Br        1.393447       -0.324430       -0.007522
 F         0.310107       -0.853858        0.035560
4
 generated by VMD
 Br        0.576017        2.679491       -0.008031
 F         0.032694        4.198462       -0.008952
 Br        1.382302       -0.327205       -0.007338
 F         0.367720       -0.854763        0.034693
4
 generated by VMD
 Br        0.534609        2.663876       -0.007830
 F        -0.038491        4.156323       -0.008728
 Br        1.371158       -0.329980       -0.007155
 F         0.425334       -0.855667        0.033825
4
 generated by VMD
 Br        0.493201        2.648260       -0.007630
 F        -0.109676        4.114183       -0.008504
 Br        1.360013       -0.332756       -0.006971
 F         0.482948       -0.856572        0.032958
4
 generated by VMD
 Br        0.451793        2.632645       -0.007429
 F        -0.180862        4.072044       -0.008281
 Br        1.348868       -0.335531       -0.006788
 F         0.540561       -0.857477        0.032091
4
 generated by VMD
 Br        0.410385        2.617030       -0.007228
 F        -0.252047        4.029904       -0.008057
 Br        1.337723       -0.338307       -0.006605
 F         0.598175       -0.858381        0.031224
4
 generated by VMD
 Br        0.368977        2.601415       -0.007027
 F        -0.323232        3.987765       -0.007833
 Br        1.326579       -0.341082       -0.006421
 F         0.655789       -0.859286        0.030356
4
 generated by VMD
 Br        0.327569        2.585799       -0.006827
 F        -0.394417        3.945626       -0.007609
 Br        1.315434       -0.343857       -0.006238
 F         0.713402       -0.860191        0.029489
4
 generated by VMD
 Br        0.286161        2.570184       -0.006626
 F        -0.465602        3.903486       -0.007385
 Br        1.304289       -0.346633       -0.006054
 F         0.771016       -0.861095        0.028622
4
 generated by VMD
 Br        0.244753        2.554569       -0.006425
 F        -0.536787        3.861347       -0.007162
 Br        1.293145       -0.349408       -0.005871
 F         0.828629       -0.862000        0.027754
4
 generated by VMD
 Br        0.203346        2.538954       -0.006224
 F        -0.607972        3.819208       -0.006938
 Br        1.282000       -0.352184       -0.005687
 F         0.886243       -0.862905        0.026887
4
 generated by VMD
 Br        0.161938        2.523339       -0.006023
 F        -0.679157        3.777068       -0.006714
 Br        1.270855       -0.354959       -0.005504
 F         0.943857       -0.863809        0.026020
4
 generated by VMD
 Br        0.120530        2.507723       -0.005823
 F        -0.750342        3.734929       -0.006490
 Br        1.259711       -0.357734       -0.005320
 F         1.001470       -0.864714        0.025152
4
 generated by VMD
 Br        0.079122        2.492108       -0.005622
 F        -0.821527        3.692790       -0.006266
 Br        1.248566       -0.360510       -0.005137
 F         1.059084       -0.865619        0.024285
4
 generated by VMD
 Br        0.037714        2.476493       -0.005421
 F        -0.892712        3.650650       -0.006043
 Br        1.237421       -0.363285       -0.004953
 F         1.116698       -0.866523        0.023418
4
 generated by VMD
 Br       -0.003694        2.460878       -0.005220
 F        -0.963897        3.608511       -0.005819
 Br        1.226277       -0.366061       -0.004770
 F         1.174311       -0.867428        0.022550
4
 generated by VMD
 Br       -0.045102        2.445262       -0.005019
 F        -1.035082        3.566371       -0.005595
 Br        1.215132       -0.368836       -0.004587
 F         1.231925       -0.868333        0.021683
4
 generated by VMD
 Br       -0.086510        2.429647       -0.004819
 F        -1.106267        3.524232       -0.005371
 Br        1.203987       -0.371611       -0.004403
 F         1.289539       -0.869237        0.020816
4
 generated by VMD
 Br       -0.127918        2.414032       -0.004618
 F        -1.177452        3.482093       -0.005147
 Br        1.192843       -0.374387       -0.004220
 F         1.347152       -0.870142        0.019948
4
 generated by VMD
 Br       -0.169326        2.398417       -0.004417
 F        -1.248637        3.439953       -0.004924
 Br        1.181698       -0.377162       -0.004036
 F         1.404766       -0.871046        0.019081
4
 generated by VMD
 Br       -0.210734        2.382802       -0.004216
 F        -1.319822        3.397814       -0.004700
 Br        1.170553       -0.379938       -0.003853
 F         1.462380       -0.871951        0.018214
4
 generated by VMD
 Br       -0.252142        2.367187       -0.004016
 F        -1.391007        3.355675       -0.004476
 Br        1.159409       -0.382713       -0.003669
 F         1.519993       -0.872856        0.017346
4
 generated by VMD
 Br       -0.293550        2.351571       -0.003815
 F        -1.462192        3.313535       -0.004252
 Br        1.148264       -0.385488       -0.003486
 F         1.577607       -0.873760        0.016479
4
 generated by VMD
 Br       -0.334957        2.335956       -0.003614
 F        -1.533377        3.271396       -0.004028
 Br        1.137119       -0.388264       -0.003302
 F         1.635221       -0.874665        0.015612
4
 generated by VMD
 Br       -0.376365        2.320341       -0.003413
 F        -1.604562        3.229256       -0.003805
 Br        1.125975       -0.391039       -0.003119
 F         1.692834       -0.875570        0.014744
4
 generated by VMD
 Br       -0.417773        2.304726       -0.003212
 F        -1.675747        3.187117       -0.003581
 Br        1.114830       -0.393815       -0.002935
 F         1.750448       -0.876474        0.013877
4
 generated by VMD
 Br       -0.459181        2.289110       -0.003012
 F        -1.746932        3.144978       -0.003357
 Br        1.103685       -0.396590       -0.002752
 F         1.808061       -0.877379        0.013010
4
 generated by VMD
 Br       -0.500589        2.273495       -0.002811
 F        -1.818117        3.102838       -0.003133
 Br        1.092541       -0.399365       -0.002568
 F         1.865675       -0.878284        0.012142
4
 generated by VMD
 Br       -0.541997        2.257880       -0.002610
 F        -1.889302        3.060699       -0.002909
 Br        1.081396       -0.402141       -0.002385
 F         1.923289       -0.879188        0.011275
4
 generated by VMD
 Br       -0.583405        2.242265       -0.002409
 F        -1.960487        3.018559       -0.002686
 Br        1.070251       -0.404916       -0.002202
 F         1.980902       -0.880093        0.010408
4
 generated by VMD
 Br       -0.624813        2.226650       -0.002209
 F        -2.031672        2.976420       -0.002462
 Br        1.059106       -0.407692       -0.002018
 F         2.038516       -0.880998        0.009541
4
 generated by VMD
 Br       -0.666221        2.211034       -0.002008
 F        -2.102858        2.934281       -0.002238
 Br        1.047962       -0.410467       -0.001835
 F         2.096130       -0.881902        0.008673
4
 generated by VMD
 Br       -0.707629        2.195419       -0.001807
 F        -2.174043        2.892141       -0.002014
 Br        1.036817       -0.413242       -0.001651
 F         2.153743       -0.882807        0.007806
4
 generated by VMD
 Br       -0.749037        2.179804       -0.001606
 F        -2.245228        2.850002       -0.001790
 Br        1.025672       -0.416018       -0.001468
 F         2.211357       -0.883712        0.006939
4
 generated by VMD
 Br       -0.790445        2.164189       -0.001405
 F        -2.316413        2.807863       -0.001567
 Br        1.014528       -0.418793       -0.001284
 F         2.268970       -0.884616        0.006071
4
 generated by VMD
 Br       -0.831852        2.148573       -0.001205
 F        -2.387598        2.765723       -0.001343
 Br        1.003383       -0.421569       -0.001101
 F         2.326584       -0.885521        0.005204
4
 generated by VMD
 Br       -0.873260        2.132958       -0.001004
 F        -2.458783        2.723584       -0.001119
 Br        0.992238       -0.424344       -0.000917
 F         2.384198       -0.886426        0.004337
4
 generated by VMD
 Br       -0.914668        2.117343       -0.000803
 F        -2.529968        2.681444       -0.000895
 Br        0.981094       -0.427119       -0.000734
 F         2.441812       -0.887330        0.003469
4
 generated by VMD
 Br       -0.956076        2.101728       -0.000602
 F        -2.601153        2.639305       -0.000671
 Br        0.969949       -0.429895       -0.000550
 F         2.499425       -0.888235        0.002602
4
 generated by VMD
 Br       -0.997484        2.086112       -0.000402
 F        -2.672338        2.597166       -0.000448
 Br        0.958804       -0.432670       -0.000367
 F         2.557039       -0.889140        0.001735
4
 generated by VMD
 Br       -1.080300        2.054882        0.000000
 F        -2.814708        2.512887        0.000000
 Br        0.936515       -0.438221        0.000000
 F         2.672266       -0.890949        0.000000

